Version 4
SHEET 1 908 680
WIRE -96 -96 -928 -96
WIRE -848 64 -864 64
WIRE -736 64 -784 64
WIRE -496 64 -496 16
WIRE -496 64 -528 64
WIRE 0 64 -16 64
WIRE 112 64 64 64
WIRE 352 64 352 16
WIRE 352 64 320 64
WIRE -864 96 -864 64
WIRE -736 96 -864 96
WIRE -16 96 -16 64
WIRE 112 96 -16 96
WIRE 560 96 320 96
WIRE 672 96 640 96
WIRE 816 112 816 80
WIRE -496 128 -528 128
WIRE -96 128 -96 -96
WIRE -64 128 -96 128
WIRE 112 128 -64 128
WIRE 384 128 320 128
WIRE 512 128 464 128
WIRE 672 128 672 96
WIRE -928 160 -928 -96
WIRE -736 160 -928 160
WIRE -400 160 -528 160
WIRE -112 160 -144 160
WIRE 64 160 -112 160
WIRE 112 160 64 160
WIRE 416 160 320 160
WIRE 512 160 512 128
WIRE 512 160 416 160
WIRE -736 192 -880 192
WIRE 64 192 64 160
WIRE 112 192 64 192
WIRE 512 192 512 160
WIRE -400 208 -400 160
WIRE 816 208 816 192
WIRE -880 224 -880 192
WIRE -736 224 -832 224
WIRE 112 224 16 224
WIRE 672 224 672 192
WIRE -832 256 -832 224
WIRE 16 256 16 224
WIRE -496 288 -528 288
WIRE 352 288 320 288
WIRE 512 288 512 272
WIRE -496 320 -496 288
WIRE -400 320 -400 288
WIRE 352 320 352 288
WIRE -832 368 -832 336
WIRE 16 368 16 336
WIRE 512 384 512 352
FLAG 816 208 0
FLAG 816 80 Vdd
FLAG 352 320 0
FLAG 352 16 Vdd
FLAG 512 384 0
FLAG 16 368 0
FLAG -496 320 0
FLAG -496 16 Vdd
FLAG -832 368 0
FLAG -400 320 0
FLAG -880 224 0
FLAG 672 224 0
FLAG 416 160 AvgComp2
FLAG -112 160 Fout
FLAG -64 128 Fin
SYMBOL CD4046Bg 224 208 R0
SYMATTR InstName U1
SYMBOL cap 0 80 R270
WINDOW 0 22 5 VTop 2
WINDOW 3 44 62 VBottom 2
SYMATTR InstName C1
SYMATTR Value 0.1µ
SYMBOL Misc\\battery 816 96 R0
WINDOW 123 0 0 Left 2
WINDOW 39 0 0 Left 2
SYMATTR InstName Batt
SYMATTR Value 5V
SYMBOL res 0 240 R0
SYMATTR InstName R3
SYMATTR Value 10k
SYMBOL cap 496 288 R0
SYMATTR InstName C3
SYMATTR Value .1µ
SYMBOL res 480 112 R90
WINDOW 0 14 105 VBottom 2
WINDOW 3 -9 8 VTop 2
SYMATTR InstName R1
SYMATTR Value 10k
SYMBOL CD4046Bg -624 208 R0
SYMATTR InstName U2
SYMBOL cap -848 80 R270
WINDOW 0 19 2 VTop 2
WINDOW 3 45 65 VBottom 2
SYMATTR InstName C2
SYMATTR Value 0.1µ
SYMBOL res -848 240 R0
SYMATTR InstName R4
SYMATTR Value 10k
SYMBOL Misc\\signal -400 192 R0
WINDOW 123 0 0 Left 2
WINDOW 39 0 0 Left 2
SYMATTR InstName V2
SYMATTR Value PULSE(2.5 3 0 1n 1n 0.1 0.2)
SYMBOL res 656 80 R90
WINDOW 0 0 56 VBottom 2
WINDOW 3 32 56 VTop 2
SYMATTR InstName R5
SYMATTR Value 10k
SYMBOL cap 656 128 R0
SYMATTR InstName C4
SYMATTR Value 100n
SYMBOL res 496 176 R0
SYMATTR InstName R2
SYMATTR Value 10k
TEXT 152 368 Left 2 !.tran 1 uic
TEXT 152 392 Left 2 !.inc "CD4046Bg.sub"
